  Version,22.2;

  Timestep,6;

  LifeCycleCost:Parameters,
    Life Cycle Cost Parameters,  !- Name
    EndOfYear,               !- Discounting Convention
    ConstantDollar,          !- Inflation Approach
    0.03,                    !- Real Discount Rate
    ,                        !- Nominal Discount Rate
    ,                        !- Inflation
    ,                        !- Base Date Month
    2011,                    !- Base Date Year
    ,                        !- Service Date Month
    2011,                    !- Service Date Year
    25,                      !- Length of Study Period in Years
    ,                        !- Tax rate
    None;                    !- Depreciation Method

  LifeCycleCost:UsePriceEscalation,
    U.S. Avg  Commercial-Electricity,  !- LCC Price Escalation Name
    Electricity,             !- Resource
    2011,                    !- Escalation Start Year
    January,                 !- Escalation Start Month
    0.9838,                  !- Year 1 Escalation
    0.9730,                  !- Year 2 Escalation
    0.9632,                  !- Year 3 Escalation
    0.9611,                  !- Year 4 Escalation
    0.9571,                  !- Year 5 Escalation
    0.9553,                  !- Year 6 Escalation
    0.9539,                  !- Year 7 Escalation
    0.9521,                  !- Year 8 Escalation
    0.9546,                  !- Year 9 Escalation
    0.9550,                  !- <none>
    0.9553,                  !- <none>
    0.9564,                  !- <none>
    0.9575,                  !- <none>
    0.9596,                  !- <none>
    0.9618,                  !- <none>
    0.9614,                  !- <none>
    0.9618,                  !- <none>
    0.9618,                  !- <none>
    0.9593,                  !- <none>
    0.9589,                  !- <none>
    0.9607,                  !- <none>
    0.9625,                  !- <none>
    0.9650,                  !- <none>
    0.9708,                  !- <none>
    0.9751,                  !- <none>
    0.9762,                  !- <none>
    0.9766,                  !- <none>
    0.9766,                  !- <none>
    0.9769,                  !- <none>
    0.9773;                  !- <none>

  LifeCycleCost:UsePriceEscalation,
    U.S. Avg  Commercial-Distillate Oil,  !- LCC Price Escalation Name
    FuelOilNo1,              !- Resource
    2011,                    !- Escalation Start Year
    January,                 !- Escalation Start Month
    0.9714,                  !- Year 1 Escalation
    0.9730,                  !- Year 2 Escalation
    0.9942,                  !- Year 3 Escalation
    1.0164,                  !- Year 4 Escalation
    1.0541,                  !- Year 5 Escalation
    1.0928,                  !- Year 6 Escalation
    1.1267,                  !- Year 7 Escalation
    1.1580,                  !- Year 8 Escalation
    1.1792,                  !- Year 9 Escalation
    1.1967,                  !- <none>
    1.2200,                  !- <none>
    1.2333,                  !- <none>
    1.2566,                  !- <none>
    1.2709,                  !- <none>
    1.2826,                  !- <none>
    1.2985,                  !- <none>
    1.3102,                  !- <none>
    1.3250,                  !- <none>
    1.3261,                  !- <none>
    1.3282,                  !- <none>
    1.3324,                  !- <none>
    1.3356,                  !- <none>
    1.3431,                  !- <none>
    1.3510,                  !- <none>
    1.3568,                  !- <none>
    1.3606,                  !- <none>
    1.3637,                  !- <none>
    1.3674,                  !- <none>
    1.3706,                  !- <none>
    1.3743;                  !- <none>

  LifeCycleCost:UsePriceEscalation,
    U.S. Avg  Commercial-Residual Oil,  !- LCC Price Escalation Name
    FuelOilNo2,              !- Resource
    2011,                    !- Escalation Start Year
    January,                 !- Escalation Start Month
    0.8469,                  !- Year 1 Escalation
    0.8257,                  !- Year 2 Escalation
    0.8681,                  !- Year 3 Escalation
    0.8988,                  !- Year 4 Escalation
    0.9289,                  !- Year 5 Escalation
    0.9604,                  !- Year 6 Escalation
    0.9897,                  !- Year 7 Escalation
    1.0075,                  !- Year 8 Escalation
    1.0314,                  !- Year 9 Escalation
    1.0554,                  !- <none>
    1.0861,                  !- <none>
    1.1278,                  !- <none>
    1.1497,                  !- <none>
    1.1620,                  !- <none>
    1.1743,                  !- <none>
    1.1852,                  !- <none>
    1.1948,                  !- <none>
    1.2037,                  !- <none>
    1.2071,                  !- <none>
    1.2119,                  !- <none>
    1.2139,                  !- <none>
    1.2194,                  !- <none>
    1.2276,                  !- <none>
    1.2365,                  !- <none>
    1.2420,                  !- <none>
    1.2461,                  !- <none>
    1.2509,                  !- <none>
    1.2550,                  !- <none>
    1.2591,                  !- <none>
    1.2638;                  !- <none>

  LifeCycleCost:UsePriceEscalation,
    U.S. Avg  Commercial-Natural gas,  !- LCC Price Escalation Name
    NaturalGas,              !- Resource
    2011,                    !- Escalation Start Year
    January,                 !- Escalation Start Month
    0.9823,                  !- Year 1 Escalation
    0.9557,                  !- Year 2 Escalation
    0.9279,                  !- Year 3 Escalation
    0.9257,                  !- Year 4 Escalation
    0.9346,                  !- Year 5 Escalation
    0.9412,                  !- Year 6 Escalation
    0.9512,                  !- Year 7 Escalation
    0.9645,                  !- Year 8 Escalation
    0.9856,                  !- Year 9 Escalation
    1.0067,                  !- <none>
    1.0222,                  !- <none>
    1.0410,                  !- <none>
    1.0610,                  !- <none>
    1.0787,                  !- <none>
    1.0942,                  !- <none>
    1.1098,                  !- <none>
    1.1220,                  !- <none>
    1.1308,                  !- <none>
    1.1386,                  !- <none>
    1.1486,                  !- <none>
    1.1619,                  !- <none>
    1.1763,                  !- <none>
    1.1918,                  !- <none>
    1.2118,                  !- <none>
    1.2284,                  !- <none>
    1.2439,                  !- <none>
    1.2605,                  !- <none>
    1.2772,                  !- <none>
    1.2938,                  !- <none>
    1.3115;                  !- <none>

  LifeCycleCost:UsePriceEscalation,
    U.S. Avg  Commercial-Coal,  !- LCC Price Escalation Name
    Coal,                    !- Resource
    2011,                    !- Escalation Start Year
    January,                 !- Escalation Start Month
    0.9970,                  !- Year 1 Escalation
    1.0089,                  !- Year 2 Escalation
    1.0089,                  !- Year 3 Escalation
    0.9941,                  !- Year 4 Escalation
    0.9941,                  !- Year 5 Escalation
    1.0000,                  !- Year 6 Escalation
    1.0030,                  !- Year 7 Escalation
    1.0059,                  !- Year 8 Escalation
    1.0089,                  !- Year 9 Escalation
    1.0119,                  !- <none>
    1.0148,                  !- <none>
    1.0178,                  !- <none>
    1.0208,                  !- <none>
    1.0267,                  !- <none>
    1.0297,                  !- <none>
    1.0356,                  !- <none>
    1.0415,                  !- <none>
    1.0534,                  !- <none>
    1.0564,                  !- <none>
    1.0593,                  !- <none>
    1.0653,                  !- <none>
    1.0712,                  !- <none>
    1.0742,                  !- <none>
    1.0801,                  !- <none>
    1.0831,                  !- <none>
    1.0831,                  !- <none>
    1.0861,                  !- <none>
    1.0890,                  !- <none>
    1.0920,                  !- <none>
    1.0950;                  !- <none>

  Building,
    Building 1,              !- Name
    ,                        !- North Axis {deg}
    ,                        !- Terrain
    ,                        !- Loads Convergence Tolerance Value {W}
    ,                        !- Temperature Convergence Tolerance Value {deltaC}
    ,                        !- Solar Distribution
    ,                        !- Maximum Number of Warmup Days
    ;                        !- Minimum Number of Warmup Days

  Zone,
    Thermal Zone A,          !- Name
    -0,                      !- Direction of Relative North {deg}
    0,                       !- X Origin {m}
    0,                       !- Y Origin {m}
    -0.00990623103789322,    !- Z Origin {m}
    ,                        !- Type
    1,                       !- Multiplier
    ,                        !- Ceiling Height {m}
    ,                        !- Volume {m3}
    ,                        !- Floor Area {m2}
    ,                        !- Zone Inside Convection Algorithm
    ,                        !- Zone Outside Convection Algorithm
    Yes;                     !- Part of Total Floor Area

  BuildingSurface:Detailed,
    Back A,                  !- Name
    Wall,                    !- Surface Type
    Interior Wall,           !- Construction Name
    Thermal Zone A,          !- Zone Name
    ,                        !- Space Name
    Adiabatic,               !- Outside Boundary Condition
    ,                        !- Outside Boundary Condition Object
    NoSun,                   !- Sun Exposure
    NoWind,                  !- Wind Exposure
    ,                        !- View Factor to Ground
    ,                        !- Number of Vertices
    4.65,3.65,3.66,  !- X,Y,Z ==> Vertex 1 {m}
    4.65,3.65,0,  !- X,Y,Z ==> Vertex 2 {m}
    0,3.65,0,  !- X,Y,Z ==> Vertex 3 {m}
    0,3.65,3.66;  !- X,Y,Z ==> Vertex 4 {m}

  BuildingSurface:Detailed,
    Ceiling A,               !- Name
    Ceiling,                 !- Surface Type
    Interior Ceiling 1,      !- Construction Name
    Thermal Zone A,          !- Zone Name
    ,                        !- Space Name
    Adiabatic,               !- Outside Boundary Condition
    ,                        !- Outside Boundary Condition Object
    NoSun,                   !- Sun Exposure
    NoWind,                  !- Wind Exposure
    ,                        !- View Factor to Ground
    ,                        !- Number of Vertices
    4.65,0,3.66,  !- X,Y,Z ==> Vertex 1 {m}
    4.65,3.65,3.66,  !- X,Y,Z ==> Vertex 2 {m}
    0,3.65,3.66,  !- X,Y,Z ==> Vertex 3 {m}
    0,0,3.66;  !- X,Y,Z ==> Vertex 4 {m}

  BuildingSurface:Detailed,
    Floor A,                 !- Name
    Floor,                   !- Surface Type
    Interior Floor,          !- Construction Name
    Thermal Zone A,          !- Zone Name
    ,                        !- Space Name
    Adiabatic,               !- Outside Boundary Condition
    ,                        !- Outside Boundary Condition Object
    NoSun,                   !- Sun Exposure
    NoWind,                  !- Wind Exposure
    ,                        !- View Factor to Ground
    ,                        !- Number of Vertices
    4.65,3.65,0,  !- X,Y,Z ==> Vertex 1 {m}
    4.65,0,0,  !- X,Y,Z ==> Vertex 2 {m}
    0,0,0,  !- X,Y,Z ==> Vertex 3 {m}
    0,3.65,0;  !- X,Y,Z ==> Vertex 4 {m}

  BuildingSurface:Detailed,
    Front A,                 !- Name
    Wall,                    !- Surface Type
    ASHRAE 189.1-2009 ExtWall Mass ClimateZone 3,  !- Construction Name
    Thermal Zone A,          !- Zone Name
    ,                        !- Space Name
    Outdoors,                !- Outside Boundary Condition
    ,                        !- Outside Boundary Condition Object
    SunExposed,              !- Sun Exposure
    WindExposed,             !- Wind Exposure
    ,                        !- View Factor to Ground
    ,                        !- Number of Vertices
    0,0,3.66,  !- X,Y,Z ==> Vertex 1 {m}
    0,0,0,  !- X,Y,Z ==> Vertex 2 {m}
    4.65,0,0,  !- X,Y,Z ==> Vertex 3 {m}
    4.65,0,3.66;  !- X,Y,Z ==> Vertex 4 {m}

  FenestrationSurface:Detailed,
    Sub Surface 1,           !- Name
    Window,                  !- Surface Type
    ASHRAE 189.1-2009 ExtWindow ClimateZone 4,  !- Construction Name
    Front A,                 !- Building Surface Name
    ,                        !- Outside Boundary Condition Object
    ,                        !- View Factor to Ground
    ,                        !- Frame and Divider Name
    ,                        !- Multiplier
    ,                        !- Number of Vertices
    0.65,0,3.05,  !- X,Y,Z ==> Vertex 1 {m}
    0.65,0,1.55,  !- X,Y,Z ==> Vertex 2 {m}
    2.15,0,1.55,  !- X,Y,Z ==> Vertex 3 {m}
    2.15,0,3.05;  !- X,Y,Z ==> Vertex 4 {m}

  BuildingSurface:Detailed,
    Side01 A,                !- Name
    Wall,                    !- Surface Type
    Interior Wall,           !- Construction Name
    Thermal Zone A,          !- Zone Name
    ,                        !- Space Name
    Outdoors,                !- Outside Boundary Condition
    ,                        !- Outside Boundary Condition Object
    NoSun,                   !- Sun Exposure
    WindExposed,             !- Wind Exposure
    ,                        !- View Factor to Ground
    ,                        !- Number of Vertices
    0,3.65,3.66,  !- X,Y,Z ==> Vertex 1 {m}
    0,3.65,0.00990623103789322,  !- X,Y,Z ==> Vertex 2 {m}
    0,0,0.00990623103789322,  !- X,Y,Z ==> Vertex 3 {m}
    0,0,3.66;  !- X,Y,Z ==> Vertex 4 {m}

  BuildingSurface:Detailed,
    Side02 A,                !- Name
    Wall,                    !- Surface Type
    Interior Wall,           !- Construction Name
    Thermal Zone A,          !- Zone Name
    ,                        !- Space Name
    Adiabatic,               !- Outside Boundary Condition
    ,                        !- Outside Boundary Condition Object
    NoSun,                   !- Sun Exposure
    NoWind,                  !- Wind Exposure
    ,                        !- View Factor to Ground
    ,                        !- Number of Vertices
    4.65,0,3.66,  !- X,Y,Z ==> Vertex 1 {m}
    4.65,0,0,  !- X,Y,Z ==> Vertex 2 {m}
    4.65,3.65,0,  !- X,Y,Z ==> Vertex 3 {m}
    4.65,3.65,3.66;  !- X,Y,Z ==> Vertex 4 {m}

  BuildingSurface:Detailed,
    Surface 2,               !- Name
    Wall,                    !- Surface Type
    Interior Wall,           !- Construction Name
    Thermal Zone A,          !- Zone Name
    ,                        !- Space Name
    Adiabatic,               !- Outside Boundary Condition
    ,                        !- Outside Boundary Condition Object
    NoSun,                   !- Sun Exposure
    NoWind,                  !- Wind Exposure
    ,                        !- View Factor to Ground
    ,                        !- Number of Vertices
    0,3.65,0.00990623103789322,  !- X,Y,Z ==> Vertex 1 {m}
    0,3.65,0,  !- X,Y,Z ==> Vertex 2 {m}
    0,0,0,  !- X,Y,Z ==> Vertex 3 {m}
    0,0,0.00990623103789322;  !- X,Y,Z ==> Vertex 4 {m}

  Zone,
    Thermal Zone B,          !- Name
    -0,                      !- Direction of Relative North {deg}
    -4.65,                   !- X Origin {m}
    0,                       !- Y Origin {m}
    -0.00990623103789322,    !- Z Origin {m}
    ,                        !- Type
    1,                       !- Multiplier
    ,                        !- Ceiling Height {m}
    ,                        !- Volume {m3}
    ,                        !- Floor Area {m2}
    ,                        !- Zone Inside Convection Algorithm
    ,                        !- Zone Outside Convection Algorithm
    Yes;                     !- Part of Total Floor Area

  BuildingSurface:Detailed,
    Back B,                  !- Name
    Wall,                    !- Surface Type
    Interior Wall,           !- Construction Name
    Thermal Zone B,          !- Zone Name
    ,                        !- Space Name
    Adiabatic,               !- Outside Boundary Condition
    ,                        !- Outside Boundary Condition Object
    NoSun,                   !- Sun Exposure
    NoWind,                  !- Wind Exposure
    ,                        !- View Factor to Ground
    ,                        !- Number of Vertices
    4.65,3.65,3.66,  !- X,Y,Z ==> Vertex 1 {m}
    4.65,3.65,0,  !- X,Y,Z ==> Vertex 2 {m}
    0,3.65,0,  !- X,Y,Z ==> Vertex 3 {m}
    0,3.65,3.66;  !- X,Y,Z ==> Vertex 4 {m}

  BuildingSurface:Detailed,
    Ceiling B,               !- Name
    Ceiling,                 !- Surface Type
    Interior Ceiling 1,      !- Construction Name
    Thermal Zone B,          !- Zone Name
    ,                        !- Space Name
    Adiabatic,               !- Outside Boundary Condition
    ,                        !- Outside Boundary Condition Object
    NoSun,                   !- Sun Exposure
    NoWind,                  !- Wind Exposure
    ,                        !- View Factor to Ground
    ,                        !- Number of Vertices
    4.65,0,3.66,  !- X,Y,Z ==> Vertex 1 {m}
    4.65,3.65,3.66,  !- X,Y,Z ==> Vertex 2 {m}
    0,3.65,3.66,  !- X,Y,Z ==> Vertex 3 {m}
    0,0,3.66;  !- X,Y,Z ==> Vertex 4 {m}

  BuildingSurface:Detailed,
    Floor B,                 !- Name
    Floor,                   !- Surface Type
    Interior Floor,          !- Construction Name
    Thermal Zone B,          !- Zone Name
    ,                        !- Space Name
    Adiabatic,               !- Outside Boundary Condition
    ,                        !- Outside Boundary Condition Object
    NoSun,                   !- Sun Exposure
    NoWind,                  !- Wind Exposure
    ,                        !- View Factor to Ground
    ,                        !- Number of Vertices
    4.65,3.65,0,  !- X,Y,Z ==> Vertex 1 {m}
    4.65,0,0,  !- X,Y,Z ==> Vertex 2 {m}
    0,0,0,  !- X,Y,Z ==> Vertex 3 {m}
    0,3.65,0;  !- X,Y,Z ==> Vertex 4 {m}

  BuildingSurface:Detailed,
    Front B,                 !- Name
    Wall,                    !- Surface Type
    ASHRAE 189.1-2009 ExtWall Mass ClimateZone 3,  !- Construction Name
    Thermal Zone B,          !- Zone Name
    ,                        !- Space Name
    Outdoors,                !- Outside Boundary Condition
    ,                        !- Outside Boundary Condition Object
    SunExposed,              !- Sun Exposure
    WindExposed,             !- Wind Exposure
    ,                        !- View Factor to Ground
    ,                        !- Number of Vertices
    0,0,3.66,  !- X,Y,Z ==> Vertex 1 {m}
    0,0,0,  !- X,Y,Z ==> Vertex 2 {m}
    4.65,0,0,  !- X,Y,Z ==> Vertex 3 {m}
    4.65,0,3.66;  !- X,Y,Z ==> Vertex 4 {m}

  FenestrationSurface:Detailed,
    Sub Surface 2,           !- Name
    Window,                  !- Surface Type
    ASHRAE 189.1-2009 ExtWindow ClimateZone 4,  !- Construction Name
    Front B,                 !- Building Surface Name
    ,                        !- Outside Boundary Condition Object
    ,                        !- View Factor to Ground
    ,                        !- Frame and Divider Name
    ,                        !- Multiplier
    ,                        !- Number of Vertices
    2.5,0,3.05,  !- X,Y,Z ==> Vertex 1 {m}
    2.5,0,1.55,  !- X,Y,Z ==> Vertex 2 {m}
    4.00000000000001,0,1.55,  !- X,Y,Z ==> Vertex 3 {m}
    4.00000000000001,0,3.05;  !- X,Y,Z ==> Vertex 4 {m}

  BuildingSurface:Detailed,
    Side01 B,                !- Name
    Wall,                    !- Surface Type
    ASHRAE 189.1-2009 ExtWall Mass ClimateZone 3,  !- Construction Name
    Thermal Zone B,          !- Zone Name
    ,                        !- Space Name
    Outdoors,                !- Outside Boundary Condition
    ,                        !- Outside Boundary Condition Object
    SunExposed,              !- Sun Exposure
    WindExposed,             !- Wind Exposure
    ,                        !- View Factor to Ground
    ,                        !- Number of Vertices
    0,3.65,3.65009376896211,  !- X,Y,Z ==> Vertex 1 {m}
    0,3.65,0,  !- X,Y,Z ==> Vertex 2 {m}
    0,0,0,  !- X,Y,Z ==> Vertex 3 {m}
    0,0,3.65009376896211;  !- X,Y,Z ==> Vertex 4 {m}

  BuildingSurface:Detailed,
    Side02 B,                !- Name
    Wall,                    !- Surface Type
    ASHRAE 189.1-2009 ExtWall Mass ClimateZone 3,  !- Construction Name
    Thermal Zone B,          !- Zone Name
    ,                        !- Space Name
    Outdoors,                !- Outside Boundary Condition
    ,                        !- Outside Boundary Condition Object
    NoSun,                   !- Sun Exposure
    NoWind,                  !- Wind Exposure
    ,                        !- View Factor to Ground
    ,                        !- Number of Vertices
    4.65,0,3.65009376896211,  !- X,Y,Z ==> Vertex 1 {m}
    4.65,0,0,  !- X,Y,Z ==> Vertex 2 {m}
    4.65,3.65,0,  !- X,Y,Z ==> Vertex 3 {m}
    4.65,3.65,3.65009376896211;  !- X,Y,Z ==> Vertex 4 {m}

  BuildingSurface:Detailed,
    Surface 10,              !- Name
    Wall,                    !- Surface Type
    Interior Wall,           !- Construction Name
    Thermal Zone B,          !- Zone Name
    ,                        !- Space Name
    Adiabatic,               !- Outside Boundary Condition
    ,                        !- Outside Boundary Condition Object
    NoSun,                   !- Sun Exposure
    NoWind,                  !- Wind Exposure
    ,                        !- View Factor to Ground
    ,                        !- Number of Vertices
    0,3.65,3.66,  !- X,Y,Z ==> Vertex 1 {m}
    0,3.65,3.65009376896211,  !- X,Y,Z ==> Vertex 2 {m}
    0,0,3.65009376896211,  !- X,Y,Z ==> Vertex 3 {m}
    0,0,3.66;  !- X,Y,Z ==> Vertex 4 {m}

  SimulationControl,
    No,                      !- Do Zone Sizing Calculation
    No,                      !- Do System Sizing Calculation
    No,                      !- Do Plant Sizing Calculation
    Yes,                     !- Run Simulation for Sizing Periods
    Yes,                     !- Run Simulation for Weather File Run Periods
    ,                        !- Do HVAC Sizing Simulation for Sizing Periods
    ;                        !- Maximum Number of HVAC Sizing Simulation Passes

  ConvergenceLimits,
    1;                       !- Minimum System Timestep {minutes}

  HeatBalanceAlgorithm,ConductionTransferFunction,200;

  RunPeriod,
    Run Period 1,            !- Name
    7,                       !- Begin Month
    1,                       !- Begin Day of Month
    2020,                    !- Begin Year
    9,                       !- End Month
    30,                      !- End Day of Month
    2020,                    !- End Year
    Wednesday,               !- Day of Week for Start Day
    No,                      !- Use Weather File Holidays and Special Days
    No,                      !- Use Weather File Daylight Saving Period
    No,                      !- Apply Weekend Holiday Rule
    Yes,                     !- Use Weather File Rain Indicators
    Yes;                     !- Use Weather File Snow Indicators

  ShadowCalculation,
    PolygonClipping,         !- Shading Calculation Method
    Periodic,                !- Shading Calculation Update Frequency Method
    7,                       !- Shading Calculation Update Frequency
    15000,                   !- Maximum Figures in Shadow Overlap Calculations
    SutherlandHodgman,       !- Polygon Clipping Algorithm
    512,                     !- Pixel Counting Resolution
    SimpleSkyDiffuseModeling,!- Sky Diffuse Modeling Algorithm
    No,                      !- Output External Shading Calculation Results
    No,                      !- Disable Self-Shading Within Shading Zone Groups
    No;                      !- Disable Self-Shading From Shading Zone Groups to Other Zones

  SurfaceConvectionAlgorithm:Inside,TARP;

  SurfaceConvectionAlgorithm:Outside,DOE-2;

  Sizing:Parameters,
    1.25,                    !- Heating Sizing Factor
    1.15;                    !- Cooling Sizing Factor

  ZoneAirContaminantBalance,
    No;                      !- Carbon Dioxide Concentration

  ZoneAirHeatBalanceAlgorithm,
    AnalyticalSolution;      !- Algorithm

  ZoneCapacitanceMultiplier:ResearchSpecial,
    Zone Capacitance Multiplier Research Special,  !- Name
    ,                        !- Zone or ZoneList Name
    ,                        !- Temperature Capacity Multiplier
    ,                        !- Humidity Capacity Multiplier
    ,                        !- Carbon Dioxide Capacity Multiplier
    ;                        !- Generic Contaminant Capacity Multiplier

  Output:Table:SummaryReports,
    AllSummary;              !- Report 1 Name

  GlobalGeometryRules,
    UpperLeftCorner,         !- Starting Vertex Position
    Counterclockwise,        !- Vertex Entry Direction
    Relative,                !- Coordinate System
    Relative,                !- Daylighting Reference Point Coordinate System
    Relative;                !- Rectangular Surface Coordinate System

  Material,
    1/2IN Gypsum,            !- Name
    Smooth,                  !- Roughness
    0.0127,                  !- Thickness {m}
    0.16,                    !- Conductivity {W/m-K}
    784.9,                   !- Density {kg/m3}
    830.000000000001,        !- Specific Heat {J/kg-K}
    0.9,                     !- Thermal Absorptance
    0.4,                     !- Solar Absorptance
    0.4;                     !- Visible Absorptance

  Material,
    1IN Stucco,              !- Name
    Smooth,                  !- Roughness
    0.0253,                  !- Thickness {m}
    0.691799999999999,       !- Conductivity {W/m-K}
    1858,                    !- Density {kg/m3}
    836.999999999999,        !- Specific Heat {J/kg-K}
    0.9,                     !- Thermal Absorptance
    0.92,                    !- Solar Absorptance
    0.92;                    !- Visible Absorptance

  Material,
    8IN Concrete HW,         !- Name
    MediumRough,             !- Roughness
    0.2033,                  !- Thickness {m}
    1.72959999999999,        !- Conductivity {W/m-K}
    2242.99999999999,        !- Density {kg/m3}
    836.999999999999,        !- Specific Heat {J/kg-K}
    0.9,                     !- Thermal Absorptance
    0.65,                    !- Solar Absorptance
    0.65;                    !- Visible Absorptance

  Material,
    F08 Metal surface,       !- Name
    Smooth,                  !- Roughness
    0.0008,                  !- Thickness {m}
    45.2800000000001,        !- Conductivity {W/m-K}
    7823.99999999999,        !- Density {kg/m3}
    500,                     !- Specific Heat {J/kg-K}
    0.9,                     !- Thermal Absorptance
    0.7,                     !- Solar Absorptance
    0.7;                     !- Visible Absorptance

  Material,
    F16 Acoustic tile,       !- Name
    MediumSmooth,            !- Roughness
    0.0191,                  !- Thickness {m}
    0.06,                    !- Conductivity {W/m-K}
    368,                     !- Density {kg/m3}
    590.000000000002,        !- Specific Heat {J/kg-K}
    0.9,                     !- Thermal Absorptance
    0.3,                     !- Solar Absorptance
    0.3;                     !- Visible Absorptance

  Material,
    G01a 19mm gypsum board,  !- Name
    MediumSmooth,            !- Roughness
    0.019,                   !- Thickness {m}
    0.16,                    !- Conductivity {W/m-K}
    800,                     !- Density {kg/m3}
    1090,                    !- Specific Heat {J/kg-K}
    0.9,                     !- Thermal Absorptance
    0.4,                     !- Solar Absorptance
    0.4;                     !- Visible Absorptance

  Material,
    G05 25mm wood,           !- Name
    MediumSmooth,            !- Roughness
    0.0254,                  !- Thickness {m}
    0.15,                    !- Conductivity {W/m-K}
    608,                     !- Density {kg/m3}
    1630,                    !- Specific Heat {J/kg-K}
    0.9,                     !- Thermal Absorptance
    0.5,                     !- Solar Absorptance
    0.5;                     !- Visible Absorptance

  Material,
    I01 25mm insulation board,  !- Name
    MediumRough,             !- Roughness
    0.0254,                  !- Thickness {m}
    0.03,                    !- Conductivity {W/m-K}
    43,                      !- Density {kg/m3}
    1210,                    !- Specific Heat {J/kg-K}
    0.9,                     !- Thermal Absorptance
    0.6,                     !- Solar Absorptance
    0.6;                     !- Visible Absorptance

  Material,
    M11 100mm lightweight concrete,  !- Name
    MediumRough,             !- Roughness
    0.1016,                  !- Thickness {m}
    0.53,                    !- Conductivity {W/m-K}
    1280,                    !- Density {kg/m3}
    840.000000000002,        !- Specific Heat {J/kg-K}
    0.9,                     !- Thermal Absorptance
    0.5,                     !- Solar Absorptance
    0.5;                     !- Visible Absorptance

  Material,
    MAT-CC05 4 HW CONCRETE,  !- Name
    Rough,                   !- Roughness
    0.1016,                  !- Thickness {m}
    1.311,                   !- Conductivity {W/m-K}
    2240,                    !- Density {kg/m3}
    836.800000000001,        !- Specific Heat {J/kg-K}
    0.9,                     !- Thermal Absorptance
    0.85,                    !- Solar Absorptance
    0.85;                    !- Visible Absorptance

  Material,
    Metal Decking,           !- Name
    MediumSmooth,            !- Roughness
    0.0015,                  !- Thickness {m}